data/crac/crac-impl/src/test/resources/TestCase2Nodes_withLF_withDifferentLimits.xiidm
<?xml version="1.0" encoding="UTF-8"?>
<iidm:network xmlns:iidm="http://www.itesla_project.eu/schema/iidm/1_0" id="Network"
              caseDate="2019-08-05T11:41:58.960+02:00" forecastDistance="0" sourceFormat="code">
    <iidm:substation id="SUBSTATION_FR" name="French substation" country="FR">
        <iidm:voltageLevel id="VOLTAGE_LEVEL_FR" name="French voltage level" nominalV="400.0"
                           topologyKind="BUS_BREAKER">
            <iidm:busBreakerTopology>
                <iidm:bus id="BUS_FR" name="French bus" v="400.0" angle="0.0"/>
            </iidm:busBreakerTopology>
            <iidm:generator id="GENERATOR_FR_1" name="French generator 1" energySource="OTHER" minP="0.0" maxP="5000.0"
                            voltageRegulatorOn="true" targetP="1300.0" targetV="400.0" bus="BUS_FR"
                            connectableBus="BUS_FR" p="-1300.0">
                <iidm:minMaxReactiveLimits minQ="-1.7976931348623157E308" maxQ="1.7976931348623157E308"/>
            </iidm:generator>
            <iidm:generator id="GENERATOR_FR_2" name="French generator 2" energySource="OTHER" minP="0.0" maxP="5000.0"
                            voltageRegulatorOn="true" targetP="0.0" targetV="400.0" bus="BUS_FR" connectableBus="BUS_FR"
                            p="-0.0">
                <iidm:minMaxReactiveLimits minQ="-1.7976931348623157E308" maxQ="1.7976931348623157E308"/>
            </iidm:generator>
            <iidm:load id="LOAD_FR" name="French load" loadType="UNDEFINED" p0="500.0" q0="0.0" bus="BUS_FR"
                       connectableBus="BUS_FR" p="500.0"/>
        </iidm:voltageLevel>
    </iidm:substation>
    <iidm:substation id="SUBSTATION_BE" name="Belgian substation" country="BE">
        <iidm:voltageLevel id="VOLTAGE_LEVEL_BE" name="Belgian voltage level" nominalV="400.0"
                           topologyKind="BUS_BREAKER">
            <iidm:busBreakerTopology>
                <iidm:bus id="BUS_BE_1" name="Belgian bus n°1" v="400.0" angle="-0.9549297094345093"/>
            </iidm:busBreakerTopology>
            <iidm:generator id="GENERATOR_BE_1.1" name="Belgian generator 1" energySource="OTHER" minP="0.0"
                            maxP="5000.0" voltageRegulatorOn="true" targetP="1000.0" targetV="400.0" bus="BUS_BE_1"
                            connectableBus="BUS_BE_1" p="-1000.0">
                <iidm:minMaxReactiveLimits minQ="-1.7976931348623157E308" maxQ="1.7976931348623157E308"/>
            </iidm:generator>
            <iidm:generator id="GENERATOR_BE_1.2" name="Belgian generator 2" energySource="OTHER" minP="0.0"
                            maxP="5000.0" voltageRegulatorOn="true" targetP="0.0" targetV="400.0" bus="BUS_BE_1"
                            connectableBus="BUS_BE_1" p="-0.0">
                <iidm:minMaxReactiveLimits minQ="-1.7976931348623157E308" maxQ="1.7976931348623157E308"/>
            </iidm:generator>
            <iidm:load id="LOAD_BE" name="Belgian load" loadType="UNDEFINED" p0="1800.0" q0="0.0" bus="BUS_BE_1"
                       connectableBus="BUS_BE_1" p="1800.0"/>
        </iidm:voltageLevel>
    </iidm:substation>
    <iidm:line id="FRANCE_BELGIUM_1" name="France-Belgium interconnection n°1" r="0.0" x="10.0" g1="0.0" b1="0.0"
               g2="0.0" b2="0.0" bus1="BUS_BE_1" connectableBus1="BUS_BE_1" voltageLevelId1="VOLTAGE_LEVEL_BE"
               bus2="BUS_FR" connectableBus2="BUS_FR" voltageLevelId2="VOLTAGE_LEVEL_FR" p1="-266.6666564941406"
               p2="266.6666564941406" q1="0" q2="0">
        <iidm:currentLimits1 permanentLimit="800"/>
        <iidm:currentLimits2 permanentLimit="800"/>
    </iidm:line>
    <iidm:line id="FRANCE_BELGIUM_2" name="France-Belgium interconnection n°2" r="0.0" x="5.0" g1="0.0" b1="0.0"
               g2="0.0" b2="0.0" bus1="BUS_BE_1" connectableBus1="BUS_BE_1" voltageLevelId1="VOLTAGE_LEVEL_BE"
               bus2="BUS_FR" connectableBus2="BUS_FR" voltageLevelId2="VOLTAGE_LEVEL_FR" p1="-533.3333129882812"
               p2="533.3333129882812" q1="0" q2="0">
        <iidm:currentLimits1 permanentLimit="500"/>
        <iidm:currentLimits2 permanentLimit="500"/>
    </iidm:line>
</iidm:network>
